
     120
 Fe1        -0.0118769890        2.9150916367        4.2822159518
 Fe1        -0.0237849323       -0.0000827207        8.8601855056
 Fe1         2.5185714076        1.4577647131       13.4246629379
 Fe2         2.5202217501        1.4629278521        2.5990879362
 Fe2        -0.0231866269        2.9059250354        7.1902289559
 Fe2        -0.0043912693        0.0041071872       11.7636264154
 Fe1         0.0181955470        2.9194416124        0.3165193660
 Fe1         0.0317568450        0.0024531550        4.8728903634
 Fe1         2.4929061303        1.4340654891        9.4689938624
 Fe2         0.0078593403       -0.0044204766        1.9749303991
 Fe2         2.4997427780        1.4566664154        6.5758415255
 Fe2         0.0134551847        2.9247270424       11.1485453806
  O         3.2868520472        0.1195158293        1.1558829365
  O         0.7629182466        1.5725734332        5.7207205241
  O        -1.7495580114        3.0186442252       10.3116414718
  O         3.3089800552        2.7807580036        1.1707784729
  O         0.7630477153        4.2416878340        5.7317168694
  O         0.7493641510        1.3317759437       10.3029883003
  O         0.9908682272        1.4660436280        1.1774806149
  O        -1.5528852929        2.8991367810        5.7316921307
  O         3.4761732159       -0.0020394699       10.3068677929
  O        -0.7574763896        1.3400059199        3.4424470345
  O         1.7242722745        2.7823825134        7.9958425026
  O        -0.7621639070        4.2453421973       12.6111060174
  O         1.7552929319        3.0693927087        3.4477941594
  O         1.7239699158        0.1175851511        8.0092206298
  O        -0.7568840134        1.5701131978       12.6155491036
  O         1.5537072124        0.0099274861        3.4473690260
  O         4.0450870170        1.4456860254        8.0007116698
  O         1.5440459264        2.8974073750       12.6089128287
 Fe1         5.0440218743        2.9095183587        4.2761229027
 Fe1         5.0236557133        0.0138008983        8.8751026089
 Fe1         7.5693834560        1.4501536827       13.4401418189
 Fe2         7.5764795239        1.4600039126        2.5970175753
 Fe2         5.0176966151        2.9093829599        7.2023125456
 Fe2         5.0519292090        0.0358569929       11.7588349803
 Fe1         5.0672089539        2.9136666780        0.3272075760
 Fe1         5.0163847973       -0.0007927046        4.9129485878
 Fe1         7.5200071345        1.4447250694        9.5180748900
 Fe2         5.0164641907        0.0003669811        1.9734735973
 Fe2         7.5237882070        1.4651399680        6.5900377678
 Fe2         4.9585856760        2.9695250442       11.1929795479
  O         8.3249707442        0.1170520723        1.1699818311
  O         5.7980783229        1.5740240550        5.7332417315
  O         3.2431710499        3.0127405789       10.2452454429
  O         8.3448636893        2.7883452239        1.1783780549
  O         5.7958367985        4.2451884418        5.7329588111
  O         5.7855356753        1.3117685508       10.3133750086
  O         6.0222424227        1.4474546898        1.1838667360
  O         3.4821765986        2.9142660076        5.7324137087
  O         8.5140757449       -0.0139128136       10.3127713827
  O         4.2841113768        1.3269748255        3.4413839279
  O         6.7656467148        2.7888485777        8.0200561450
  O         4.3085289316        4.2546713163       12.6730029295
  O         6.7921703384        3.0128081266        3.4519493046
  O         6.7674540245        0.1228926399        8.0127604430
  O         4.2644537629        1.5840053474       12.6137548930
  O         6.6135789257       -0.0393029613        3.4936889969
  O         9.0664431698        1.4346067828        7.9935428667
  O         6.6152091331        2.9067657379       12.6383696399
 Fe1        -2.5092847794        7.2604502450        4.2811710424
 Fe1        -2.5292313704        4.3567847131        8.8747353764
 Fe1         0.0314884472        5.8213066373       13.4024839941
 Fe2        -0.0048110001        5.8277216771        2.5894714073
 Fe2        -2.5120599142        7.2692375399        7.2033984361
 Fe2        -2.5247491236        4.3393491612       11.7731827985
 Fe1        -2.4986674123        7.2584246412        0.3010719733
 Fe1        -2.5216074214        4.3641514712        4.9032425784
 Fe1        -0.0120657379        5.8146886242        9.4829726320
 Fe2        -2.4999092358        4.3653761564        1.9868236248
 Fe2        -0.0105848788        5.8091530957        6.5785282705
 Fe2        -2.5153394599        7.2628102784       11.1490819755
  O         0.7910950719        4.4867835189        1.1750849323
  O        -1.7527771746        5.9355346025        5.7345232231
  O        -4.2641182688        7.3845318264       10.3053313527
  O         0.7795681091        7.1499352261        1.1753059659
  O        -1.7547814092        8.6018488778        5.7366729498
  O        -1.7559419349        5.6949037694       10.3086342528
  O        -1.5256775460        5.8196417718        1.1635083883
  O        -4.0654701471        7.2646849612        5.7291513509
  O         0.9388753534        4.3591996144       10.2883168740
  O        -3.2768635625        5.6924806003        3.4508061281
  O        -0.7797105435        7.1470460556        8.0331710702
  O        -3.2877633022        8.6014457434       12.6071590175
  O        -0.7658777568        7.3942042406        3.4421129598
  O        -0.7953979501        4.4751726853        8.0060074864
  O        -3.2681897440        5.9351269667       12.6126355989
  O        -0.9604614210        4.3746244500        3.4477362110
  O         1.5300439752        5.7999886624        8.0096917053
  O        -0.9637695563        7.2812747412       12.6048928359
 Fe1         2.5355421538        7.2824066013        4.3298766403
 Fe1         2.4952116001        4.3400996817        8.8563750293
 Fe1         5.0519454986        5.8306555117       13.4499703528
 Fe2         5.0429987907        5.8153397067        2.6138457153
 Fe2         2.4872054977        7.2600750345        7.2192360720
 Fe2         2.5944066546        4.2988469427       11.7255534130
 Fe1         2.5181068358        7.2572884177        0.3122529833
 Fe1         2.5056994572        4.3293634633        4.8913671707
 Fe1         5.0299795363        5.8114723617        9.4821973637
 Fe2         2.5523915909        4.3542486414        1.9625559321
 Fe2         5.0484213974        5.8207808409        6.5804295362
 Fe2         2.4999477376        7.2313754505       11.1627563572
  O         5.8226504202        4.4817783376        1.1833590807
  O         3.2564958490        5.9515550488        5.6862795500
  O         0.7709851963        7.3746767766       10.3061912567
  O         5.8258713969        7.1489330405        1.1659154336
  O         3.2783984360        8.5591675652        5.6856601450
  O         3.2904693402        5.6857409682       10.3053484599
  O         3.5037789968        5.8270441389        1.1802101742
  O         0.9550746095        7.2765897371        5.7590854015
  O         6.0065841838        4.3747141843       10.3100072487
  O         1.7645661848        5.7626870735        3.4954946216
  O         4.2490035559        7.1508466413        8.0006471601
  O         1.7477908102        8.6104653319       12.6161230274
  O         4.2745804563        7.3900654600        3.4429161964
  O         4.2405867625        4.4940782164        7.9935132553
  O         1.7651921208        5.9572839484       12.6090362442
  O         4.0615776574        4.3592985950        3.4426237064
  O         6.5641149761        5.8104451886        8.0092126496
  O         4.0727630635        7.2729922656       12.6148791423
